REMARK  10 active torsions:
REMARK  status: ('A' for Active; 'I' for Inactive)
REMARK    1  A    between atoms: O1_1  and  C1_8 
REMARK    2  A    between atoms: O3_3  and  C9_16 
REMARK    3  A    between atoms: O5_5  and  C14_21 
REMARK    4  A    between atoms: O6_6  and  C15_22 
REMARK    5  A    between atoms: O7_7  and  C18_25 
REMARK    6  A    between atoms: C1_8  and  C2_9 
REMARK    7  A    between atoms: C2_9  and  C3_10 
REMARK    8  A    between atoms: C3_10  and  C4_11 
REMARK    9  A    between atoms: C16_23  and  C19_26 
REMARK   10  A    between atoms: C19_26  and  C20_27 
ROOT
ATOM      1  O2  UNK     1      -0.201  -2.826   0.293  1.00  0.00    -0.309 OA
ATOM      2  O4  UNK     1      -0.537   1.091  -0.839  1.00  0.00    -0.286 OA
ATOM      3  C4  UNK     1      -2.906  -0.348  -0.226  1.00  0.00    -0.005 A 
ATOM      4  C5  UNK     1      -1.621  -0.893  -0.166  1.00  0.00     0.058 A 
ATOM      5  C8  UNK     1      -1.432  -2.222   0.212  1.00  0.00     0.093 A 
ATOM      6  C9  UNK     1      -4.006  -1.144   0.095  1.00  0.00     0.106 A 
ATOM      7  C10 UNK     1      -0.443  -0.079  -0.500  1.00  0.00     0.201 A 
ATOM      8  C11 UNK     1       0.866  -0.744  -0.406  1.00  0.00     0.083 A 
ATOM      9  C12 UNK     1       0.911  -2.081  -0.014  1.00  0.00     0.095 A 
ATOM     10  C13 UNK     1      -2.536  -3.013   0.533  1.00  0.00     0.077 A 
ATOM     11  C14 UNK     1      -3.822  -2.474   0.474  1.00  0.00     0.102 A 
ATOM     12  C15 UNK     1       2.043  -0.051  -0.703  1.00  0.00     0.092 A 
ATOM     13  C16 UNK     1       3.270  -0.707  -0.606  1.00  0.00     0.013 A 
ATOM     14  C17 UNK     1       2.143  -2.733   0.081  1.00  0.00     0.075 A 
ATOM     15  C18 UNK     1       3.320  -2.045  -0.215  1.00  0.00     0.077 A 
ENDROOT
BRANCH   3  16
ATOM     16  C3  UNK     1      -3.174   1.069  -0.625  1.00  0.00     0.045 C 
BRANCH  16  17
ATOM     17  C2  UNK     1      -2.862   2.055   0.516  1.00  0.00     0.042 C 
BRANCH  17  18
ATOM     18  C1  UNK     1      -3.089   3.540   0.168  1.00  0.00     0.051 C 
ATOM     19  C6  UNK     1      -2.728   4.412   1.375  1.00  0.00     0.045 C 
ATOM     20  C7  UNK     1      -2.284   3.984  -1.055  1.00  0.00     0.045 C 
BRANCH  18  21
ATOM     21  O1  UNK     1      -4.478   3.730  -0.111  1.00  0.00    -0.391 OA
ATOM     22  H12 UNK     1      -4.617   4.669  -0.323  1.00  0.00     0.210 HD
ENDBRANCH  18  21
ENDBRANCH  17  18
ENDBRANCH  16  17
ENDBRANCH   3  16
BRANCH   6  23
ATOM     23  O3  UNK     1      -5.270  -0.631   0.042  1.00  0.00    -0.357 OA
ATOM     24  H16 UNK     1      -5.897  -1.330   0.298  1.00  0.00     0.217 HD
ENDBRANCH   6  23
BRANCH  11  25
ATOM     25  O5  UNK     1      -4.890  -3.259   0.791  1.00  0.00    -0.358 OA
ATOM     26  H18 UNK     1      -4.572  -4.147   1.028  1.00  0.00     0.217 HD
ENDBRANCH  11  25
BRANCH  12  27
ATOM     27  O6  UNK     1       2.035   1.257  -1.088  1.00  0.00    -0.359 OA
ATOM     28  H19 UNK     1       1.132   1.607  -1.102  1.00  0.00     0.217 HD
ENDBRANCH  12  27
BRANCH  13  29
ATOM     29  C19 UNK     1       4.538   0.021  -0.921  1.00  0.00     0.071 C 
BRANCH  29  30
ATOM     30  C20 UNK     1       5.320   0.394   0.313  1.00  0.00    -0.020 C 
ATOM     31  C21 UNK     1       5.649   1.626   0.746  1.00  0.00    -0.091 C 
ATOM     32  C22 UNK     1       6.434   1.927   1.991  1.00  0.00     0.042 C 
ATOM     33  C23 UNK     1       5.239   2.844  -0.038  1.00  0.00     0.042 C 
ENDBRANCH  29  30
ENDBRANCH  13  29
BRANCH  15  34
ATOM     34  O7  UNK     1       4.512  -2.699  -0.115  1.00  0.00    -0.360 OA
ATOM     35  H20 UNK     1       4.350  -3.614   0.170  1.00  0.00     0.217 HD
ENDBRANCH  15  34
TORSDOF 10
